powerflow/test/test_triplex.glm
// $Id$
//
// Powerflow module self-test

#set include="../../core"
#include "../../core/rt/msvc_debugger.glm"

#include "assert.glm"

clock {
	timezone EST+5EDT;
	starttime '2000-01-01 00:00:00 EST';
}

module powerflow;

///////////////////////////////////////////////////////
// test 3: triplx line (TPL)

///////////////////////////////////////////////////////
// AS phase


object triplex_line {
	phases AN;
	length 100 ft;	
	configuration object triplex_line_configuration {
		conductor_1 object triplex_line_conductor {
			resistance 0.97;
			geometric_mean_radius 0.0111;		
		};
		conductor_2 object triplex_line_conductor {
			resistance 0.97;
			geometric_mean_radius 0.0111;		
		};
		conductor_N object triplex_line_conductor {
			resistance 0.97;
			geometric_mean_radius 0.0111;		
		};
		insulation_thickness 0.08 in;
		diameter 0.368 in;
	};
	from object triplex_node {
		name TPL_fAS;
		phases AS;
		voltage_1 120 + 0j;		
		voltage_2 120 + 0j;
		voltage_N 0;
	};
	to object triplex_node {
		name TPL_tAS;
		phases AS;
		voltage_1 120 + 0j;		
		voltage_2 120 + 0j;
		voltage_N 0;
		//current_1  1;
		power_1 1000+2000j;	
		shunt_1 5.3333e-004 -2.6667e-004i;		
	};
	object complex_assert {
		target "power_out";
		value 1.0076 + 2.0038j;
		within 0.01;
	};	
};


// BS phase


object triplex_line {
	phases BN;
	length 100 ft;	
	configuration object triplex_line_configuration {
		conductor_1 object triplex_line_conductor {
			resistance 0.97;
			geometric_mean_radius 0.0111;		
		};
		conductor_2 object triplex_line_conductor {
			resistance 0.97;
			geometric_mean_radius 0.0111;		
		};
		conductor_N object triplex_line_conductor {
			resistance 0.97;
			geometric_mean_radius 0.0111;		
		};
		insulation_thickness 0.08 in;
		diameter 0.368 in;
	};
	from object triplex_node {
		name TPL_fBS;
		phases BS;
		voltage_1 120 + 0j;		
		voltage_2 120 + 0j;
		voltage_N 0;
	};
	to object triplex_node {
		name TPL_tBS;
		phases BS;
		voltage_1 120 + 0j;		
		voltage_2 120 + 0j;
		voltage_N 0;
		//current_1  1;
		power_1 1000+2000j;	
		shunt_1 5.3333e-004 -2.6667e-004i;		
	};
	object complex_assert {
		target "power_out";
		value 1.0076 + 2.0038j;
		within 0.01;
	};	
};


// CS phase


object triplex_line {
	phases CN;
	length 100 ft;	
	configuration object triplex_line_configuration {
		conductor_1 object triplex_line_conductor {
			resistance 0.97;
			geometric_mean_radius 0.0111;		
		};
		conductor_2 object triplex_line_conductor {
			resistance 0.97;
			geometric_mean_radius 0.0111;		
		};
		conductor_N object triplex_line_conductor {
			resistance 0.97;
			geometric_mean_radius 0.0111;		
		};
		insulation_thickness 0.08 in;
		diameter 0.368 in;
	};
	from object triplex_node {
		name TPL_fCS;
		phases CS;
		voltage_1 120 + 0j;		
		voltage_2 120 + 0j;
		voltage_N 0;
	};
	to object triplex_node {
		name TPL_tCS;
		phases CS;
		voltage_1 120 + 0j;		
		voltage_2 120 + 0j;
		voltage_N 0;
		//current_1  1;
		power_1 1000+2000j;	
		shunt_1 5.3333e-004 -2.6667e-004i;		
	};
	object complex_assert {
		target "power_out";
		value 1.0076 + 2.0038j;
		within 0.01;
	};	
};

